Version 4
SHEET 1 880 680
WIRE 176 -80 48 -80
WIRE 368 -80 256 -80
WIRE 48 48 48 -80
WIRE 80 48 48 48
WIRE 368 48 368 -80
WIRE 368 48 336 48
WIRE 80 112 48 112
WIRE 544 112 336 112
WIRE 48 144 48 112
WIRE 544 144 544 112
WIRE 80 176 -32 176
WIRE 400 176 336 176
WIRE -32 240 -32 176
WIRE 80 240 48 240
WIRE 432 240 336 240
WIRE 544 240 544 224
WIRE 544 240 432 240
WIRE 544 256 544 240
WIRE 432 272 432 240
WIRE -32 352 -32 320
WIRE 48 368 48 240
WIRE 544 368 544 336
WIRE 544 368 48 368
FLAG -32 352 0
FLAG -32 176 V_T
IOPIN -32 176 In
FLAG 400 176 V_out
IOPIN 400 176 Out
FLAG 48 144 0
FLAG 432 272 0
SYMBOL OpAmps\\LT1167 208 144 R0
SYMATTR InstName U1
SYMBOL voltage -32 224 R0
WINDOW 0 -98 65 Left 2
WINDOW 3 -101 95 Left 2
WINDOW 123 0 0 Left 0
WINDOW 39 0 0 Left 0
SYMATTR InstName V_in
SYMATTR Value 9.99m
SYMBOL res 272 -96 R90
WINDOW 0 0 56 VBottom 2
WINDOW 3 32 56 VTop 2
SYMATTR InstName Rg
SYMATTR Value 140
SYMBOL voltage 544 128 R0
WINDOW 3 39 45 Left 2
WINDOW 123 0 0 Left 0
WINDOW 39 0 0 Left 0
SYMATTR InstName Vcc
SYMATTR Value 10
SYMBOL voltage 544 240 R0
WINDOW 0 25 92 Left 2
WINDOW 3 38 116 Left 2
WINDOW 123 0 0 Left 0
WINDOW 39 0 0 Left 0
SYMATTR InstName -Vcc
SYMATTR Value 10
TEXT -472 360 Left 2 !.tran 5
